"""
 Mécanisme cinétique simplifié.
 Nombre d'espèces 40 + N2
 Nombre de réactions 161

 Mcanisme source:
     Norinaga et al., J. Anal. Appl. Pyrolysis 86 (2009) 148160

"""

units(length='cm', time='s', quantity='mol', act_energy='kJ/mol')

ideal_gas(name='gas',
          elements="C H O N",
          species="""C2H2      H2        H         CH4       CH3
                     C2H4      C2H3      C2H6      C2H5      C4H2
                     C4H4      C6H6      C6H5      C3H6      C3H3
                     AC3H5     AC3H4     PC3H4     SC3H5     C4H6
                     C4H61     C4H612    I-C4H51   I-C4H3    C5H6
                     C5H5      C7H7      C8H8      C9H8      C9H7
                     A1C2H     A1C2H3    A2        CO        A2CH3-2
                     A2CH2-2   CH3COCH3  CH3COCH2  CH2CO     CH3CO
                     N2""",
          reactions='all',
          transport='Mix',
          initial_state=state(temperature=300.0, pressure=OneAtm))

#-------------------------------------------------------------------------------
# Species data
#-------------------------------------------------------------------------------

species(name='C2H2',
        atoms='C:2 H:2',
        thermo=(NASA([300.00, 1000.00],
                     [ 2.01356200E+00,  1.51904460E-02, -1.61631890E-05,
                       9.07899200E-09, -1.91274600E-12,  2.61244400E+04,
                       8.80537800E+00]),
                NASA([1000.00, 5000.00],
                     [ 4.43677000E+00,  5.37603900E-03, -1.91281600E-06,
                       3.28637900E-10, -2.15670900E-14,  2.56676600E+04,
                      -2.80033800E+00])),
        transport=gas_transport(geom='linear',
                                diam=4.1,
                                well_depth=209.0,
                                rot_relax=2.5),
        note='121386')

species(name='H2',
        atoms='H:2',
        thermo=(NASA([300.00, 1000.00],
                     [ 3.29812400E+00,  8.24944100E-04, -8.14301500E-07,
                      -9.47543400E-11,  4.13487200E-13, -1.01252090E+03,
                      -3.29409400E+00]),
                NASA([1000.00, 5000.00],
                     [ 2.99142300E+00,  7.00064400E-04, -5.63382800E-08,
                      -9.23157800E-12,  1.58275190E-15, -8.35034000E+02,
                      -1.35511010E+00])),
        transport=gas_transport(geom='linear',
                                diam=2.92,
                                well_depth=38.0,
                                polar=0.79,
                                rot_relax=280.0),
        note='121286')

species(name='H',
        atoms='H:1',
        thermo=(NASA([300.00, 1000.00],
                     [ 2.50000000E+00,  0.00000000E+00,  0.00000000E+00,
                       0.00000000E+00,  0.00000000E+00,  2.54716200E+04,
                      -4.60117600E-01]),
                NASA([1000.00, 5000.00],
                     [ 2.50000000E+00,  0.00000000E+00,  0.00000000E+00,
                       0.00000000E+00,  0.00000000E+00,  2.54716200E+04,
                      -4.60117600E-01])),
        transport=gas_transport(geom='atom',
                                diam=2.05,
                                well_depth=145.0),
        note='120186')

species(name='CH4',
        atoms='C:1 H:4',
        thermo=(NASA([300.00, 1000.00],
                     [ 7.78741500E-01,  1.74766800E-02, -2.78340900E-05,
                       3.04970800E-08, -1.22393070E-11, -9.82522900E+03,
                       1.37221950E+01]),
                NASA([1000.00, 5000.00],
                     [ 1.68347800E+00,  1.02372360E-02, -3.87512800E-06,
                       6.78558500E-10, -4.50342300E-14, -1.00807870E+04,
                       9.62339500E+00])),
        transport=gas_transport(geom='nonlinear',
                                diam=3.746,
                                well_depth=141.4,
                                polar=2.6,
                                rot_relax=13.0),
        note='121286')

species(name='CH3',
        atoms='C:1 H:3',
        thermo=(NASA([300.00, 1000.00],
                     [ 2.43044200E+00,  1.11240990E-02, -1.68022000E-05,
                       1.62182880E-08, -5.86495200E-12,  1.64237810E+04,
                       6.78979400E+00]),
                NASA([1000.00, 5000.00],
                     [ 2.84405100E+00,  6.13797400E-03, -2.23034500E-06,
                       3.78516100E-10, -2.45215900E-14,  1.64378090E+04,
                       5.45269700E+00])),
        transport=gas_transport(geom='linear',
                                diam=3.8,
                                well_depth=144.0),
        note='121286')

species(name='C2H4',
        atoms='C:2 H:4',
        thermo=(NASA([300.00, 1000.00],
                     [-8.61488000E-01,  2.79616200E-02, -3.38867700E-05,
                       2.78515200E-08, -9.73787900E-12,  5.57304600E+03,
                       2.42114800E+01]),
                NASA([1000.00, 5000.00],
                     [ 3.52841800E+00,  1.14851850E-02, -4.41838500E-06,
                       7.84460000E-10, -5.26684800E-14,  4.42828800E+03,
                       2.23038900E+00])),
        transport=gas_transport(geom='nonlinear',
                                diam=3.971,
                                well_depth=280.8,
                                rot_relax=1.5),
        note='121286')

species(name='C2H3',
        atoms='C:2 H:3',
        thermo=(NASA([300.00, 1000.00],
                     [ 2.45927600E+00,  7.37147600E-03,  2.10987200E-06,
                      -1.32164210E-09, -1.18478380E-12,  3.33522500E+04,
                       1.15562020E+01]),
                NASA([1000.00, 5000.00],
                     [ 5.93346800E+00,  4.01774500E-03, -3.96673900E-07,
                      -1.44126660E-10,  2.37864300E-14,  3.18543400E+04,
                      -8.53031300E+00])),
        transport=gas_transport(geom='nonlinear',
                                diam=4.1,
                                well_depth=209.0,
                                rot_relax=1.0),
        note='12787')

species(name='C2H6',
        atoms='C:2 H:6',
        thermo=(NASA([300.00, 1000.00],
                     [ 1.46253880E+00,  1.54946670E-02,  5.78050700E-06,
                      -1.25783190E-08,  4.58626700E-12, -1.12391760E+04,
                       1.44322950E+01]),
                NASA([1000.00, 4000.00],
                     [ 4.82593800E+00,  1.38404290E-02, -4.55725800E-06,
                       6.72496700E-10, -3.59816100E-14, -1.27177930E+04,
                      -5.23950600E+00])),
        transport=gas_transport(geom='nonlinear',
                                diam=4.302,
                                well_depth=252.3,
                                rot_relax=1.5),
        note='121686')

species(name='C2H5',
        atoms='C:2 H:5',
        thermo=(NASA([300.00, 1000.00],
                     [ 2.69070100E+00,  8.71913300E-03,  4.41983800E-06,
                       9.33870300E-10, -3.92777300E-12,  1.28704040E+04,
                       1.21381950E+01]),
                NASA([1000.00, 5000.00],
                     [ 7.19048000E+00,  6.48407700E-03, -6.42806400E-07,
                      -2.34787900E-10,  3.88087700E-14,  1.06745490E+04,
                      -1.47808920E+01])),
        transport=gas_transport(geom='nonlinear',
                                diam=4.302,
                                well_depth=252.3,
                                rot_relax=1.5),
        note='12387')

species(name='C4H2',
        atoms='C:4 H:2',
        thermo=(NASA([300.00, 1000.00],
                     [ 4.00519100E+00,  1.98100000E-02, -9.86587700E-06,
                      -6.63515800E-09,  6.07741300E-12,  5.42406500E+04,
                       1.84573600E+00]),
                NASA([1000.00, 5000.00],
                     [ 9.03140700E+00,  6.04725200E-03, -1.94878800E-06,
                       2.75486300E-10, -1.38560800E-14,  5.29473500E+04,
                      -2.38506700E+01])),
        transport=gas_transport(geom='linear',
                                diam=5.18,
                                well_depth=357.0,
                                rot_relax=1.0),
        note='121686')

species(name='C4H4',
        atoms='C:4 H:4',
        thermo=(NASA([300.00, 1000.00],
                     [ 3.23389300E+00,  1.86563400E-02,  1.27032050E-06,
                      -9.41009600E-09,  2.95611000E-12,  3.30109700E+04,
                       9.92267600E+00]),
                NASA([1000.00, 4000.00],
                     [ 1.06977730E+01,  6.98201400E-03, -6.56774700E-07,
                      -3.88451700E-10,  7.20094600E-14,  3.03480300E+04,
                      -3.12843000E+01])),
        transport=gas_transport(geom='linear',
                                diam=5.18,
                                well_depth=357.0,
                                rot_relax=1.0),
        note='82489')

species(name='C6H6',
        atoms='C:6 H:6',
        thermo=(NASA([300.00, 1000.00],
                     [-3.13801200E+00,  4.72310300E-02, -2.96220700E-06,
                      -3.26281900E-08,  1.71869100E-11,  8.89003100E+03,
                       3.65757300E+01]),
                NASA([1000.00, 5000.00],
                     [ 1.29107400E+01,  1.72329600E-02, -5.02421000E-06,
                       5.89349700E-10, -1.94752100E-14,  3.66451100E+03,
                      -5.00269900E+01])),
        transport=gas_transport(geom='nonlinear',
                                diam=5.349,
                                well_depth=412.3,
                                rot_relax=1.0),
        note='20387')

species(name='C6H5',
        atoms='C:6 H:5',
        thermo=(NASA([300.00, 1000.00],
                     [ 1.14355670E-01,  3.62732400E-02,  1.15828560E-06,
                      -2.19696400E-08,  8.46355600E-12,  3.83605400E+04,
                       2.38011700E+01]),
                NASA([1000.00, 4000.00],
                     [ 1.57758870E+01,  9.65110900E-03, -9.42941600E-07,
                      -5.46911100E-10,  1.02652160E-13,  3.30269800E+04,
                      -6.17628000E+01])),
        transport=gas_transport(geom='nonlinear',
                                diam=5.349,
                                well_depth=412.3,
                                rot_relax=1.0),
        note='82489')

species(name='C3H6',
        atoms='C:3 H:6',
        thermo=(NASA([300.00, 1387.00],
                     [ 5.04378184E-01,  2.77642167E-02, -1.37928312E-05,
                       2.93222496E-09, -1.47257700E-13,  1.46448440E+03,
                       2.14342779E+01]),
                NASA([1387.00, 5000.00],
                     [ 7.73785904E+00,  1.39596866E-02, -4.75545933E-06,
                       7.36165084E-10, -4.26202339E-14, -1.40361334E+03,
                      -1.85888337E+01])),
        transport=gas_transport(geom='nonlinear',
                                diam=4.678,
                                well_depth=298.9,
                                rot_relax=1.0),
        note='CBS-Q07/01')

species(name='C3H3',
        atoms='C:3 H:3',
        thermo=(NASA([300.00, 1399.00],
                     [ 3.12233555E+00,  2.05585341E-02, -1.84097932E-05,
                       8.95184857E-09, -1.74881526E-12,  3.96247015E+04,
                       7.82530195E+00]),
                NASA([1399.00, 5000.00],
                     [ 7.94177928E+00,  6.56431205E-03, -2.20216433E-06,
                       3.37244600E-10, -1.93731594E-14,  3.81804347E+04,
                      -1.71608754E+01])),
        transport=gas_transport(geom='linear',
                                diam=4.76,
                                well_depth=252.0,
                                rot_relax=1.0),
        note='CBS-Q07/01')

species(name='AC3H5',
        atoms='C:3 H:5',
        thermo=(NASA([300.00, 1386.00],
                     [-3.34024311E-01,  3.22991878E-02, -2.33490952E-05,
                       8.99835085E-09, -1.46327673E-12,  1.93614921E+04,
                       2.44623002E+01]),
                NASA([1386.00, 5000.00],
                     [ 8.86768772E+00,  1.09012389E-02, -3.80094606E-06,
                       5.97727066E-10, -3.49892618E-14,  1.61006315E+04,
                      -2.50850368E+01])),
        transport=gas_transport(geom='nonlinear',
                                diam=4.22,
                                well_depth=316.0,
                                rot_relax=1.0),
        note='9/20/1')

species(name='AC3H4',
        atoms='C:3 H:4',
        thermo=(NASA([300.00, 1396.00],
                     [ 6.95812634E-01,  2.57913420E-02, -1.87039189E-05,
                       7.40198202E-09, -1.23404173E-12,  2.08859781E+04,
                       1.82324932E+01]),
                NASA([1396.00, 5000.00],
                     [ 7.36527254E+00,  9.62565331E-03, -3.26467671E-06,
                       5.03874644E-10, -2.91102768E-14,  1.85982067E+04,
                      -1.74288340E+01])),
        transport=gas_transport(geom='linear',
                                diam=4.29,
                                well_depth=324.8,
                                rot_relax=1.0),
        note='CBS-Q07/01')

species(name='PC3H4',
        atoms='C:3 H:4',
        thermo=(NASA([300.00, 1392.00],
                     [ 1.60534058E+00,  2.23376550E-02, -1.45105551E-05,
                       5.23665582E-09, -8.23908998E-13,  2.06145602E+04,
                       1.44102633E+01]),
                NASA([1392.00, 5000.00],
                     [ 7.11491397E+00,  9.82645736E-03, -3.33077307E-06,
                       5.13817417E-10, -2.96726667E-14,  1.86178445E+04,
                      -1.53858170E+01])),
        transport=gas_transport(geom='linear',
                                diam=4.29,
                                well_depth=324.8,
                                rot_relax=1.0),
        note='CBS-Q07/01')

species(name='SC3H5',
        atoms='C:3 H:5',
        thermo=(NASA([298.15, 1000.00],
                     [ 2.23610120E+00,  1.63872450E-02,  7.66397330E-06,
                      -1.93648180E-08,  8.41554680E-12,  3.01735360E+04,
                       1.48060600E+01]),
                NASA([1000.00, 5000.00],
                     [ 6.13421750E+00,  1.33250250E-02, -4.86452300E-06,
                       8.37739040E-10, -5.51614240E-14,  2.86261980E+04,
                      -7.41121340E+00])),
        transport=gas_transport(geom='nonlinear',
                                diam=4.22,
                                well_depth=316.0,
                                rot_relax=1.0),
        note='T6/96')

species(name='C4H6',
        atoms='C:4 H:6',
        thermo=(NASA([300.00, 1000.00],
                     [ 1.12844650E-01,  3.43690220E-02, -1.11073920E-05,
                      -9.21066600E-09,  6.20651790E-12,  1.18022700E+04,
                       2.30899960E+01]),
                NASA([1000.00, 3000.00],
                     [ 8.86731340E+00,  1.49186700E-02, -3.15487160E-06,
                      -4.18413300E-10,  1.57612580E-13,  9.13385160E+03,
                      -2.33281710E+01])),
        transport=gas_transport(geom='nonlinear',
                                diam=5.18,
                                well_depth=357.0,
                                rot_relax=1.0),
        note='H6W/94')

species(name='C4H61',
        atoms='C:4 H:6',
        thermo=(NASA([300.00, 1380.00],
                     [ 1.45075296E+00,  3.36258286E-02, -2.11837593E-05,
                       7.54395592E-09, -1.22855613E-12,  1.82658557E+04,
                       1.75482371E+01]),
                NASA([1380.00, 5000.00],
                     [ 1.02832062E+01,  1.48428172E-02, -5.17071670E-06,
                       8.12555832E-10, -4.75380118E-14,  1.48555270E+04,
                      -3.08099823E+01])),
        transport=gas_transport(geom='nonlinear',
                                diam=5.18,
                                well_depth=357.0,
                                rot_relax=1.0),
        note='4/30/1THERM')

species(name='C4H612',
        atoms='C:4 H:6',
        thermo=(NASA([300.00, 1000.00],
                     [ 1.02346700E+00,  3.49591900E-02, -2.20090500E-05,
                       6.94227200E-09, -7.87918700E-13,  1.81179900E+04,
                       1.97506600E+01]),
                NASA([1000.00, 3000.00],
                     [ 1.78155700E+01, -4.25750200E-03,  1.05118500E-05,
                      -4.47384400E-09,  5.84813800E-13,  1.26734200E+04,
                      -6.98266200E+01])),
        transport=gas_transport(geom='nonlinear',
                                diam=5.18,
                                well_depth=357.0,
                                rot_relax=1.0),
        note='A8/83')

species(name='I-C4H51',
        atoms='C:4 H:5',
        thermo=(NASA([300.00, 1391.00],
                     [ 1.92302568E+00,  3.10977409E-02, -2.14629997E-05,
                       8.00985782E-09, -1.26824902E-12,  3.56873928E+04,
                       1.54484285E+01]),
                NASA([1391.00, 5000.00],
                     [ 1.01676152E+01,  1.19383121E-02, -4.06799128E-06,
                       6.29911914E-10, -3.64772449E-14,  3.27733072E+04,
                      -2.89339744E+01])),
        transport=gas_transport(geom='nonlinear',
                                diam=5.18,
                                well_depth=357.0,
                                rot_relax=1.0),
        note='9/21/1')

species(name='I-C4H3',
        atoms='C:4 H:3',
        thermo=(NASA([300.00, 1000.00],
                     [ 2.08304120E+00,  4.08342740E-02, -6.21596850E-05,
                       5.16793580E-08, -1.70291840E-11,  5.80051290E+04,
                       1.36174620E+01]),
                NASA([1000.00, 3000.00],
                     [ 9.09781650E+00,  9.22071190E-03, -3.38784410E-06,
                       4.91604980E-10, -1.45297800E-14,  5.66005740E+04,
                      -1.98025970E+01])),
        transport=gas_transport(geom='nonlinear',
                                diam=5.18,
                                well_depth=357.0,
                                rot_relax=1.0),
        note='AB1/93')

species(name='C5H6',
        atoms='C:5 H:6',
        thermo=(NASA([300.00, 1402.00],
                     [-4.78259036E+00,  6.09873033E-02, -5.17363931E-05,
                       2.25173536E-08, -3.92621113E-12,  1.58382836E+04,
                       4.43226201E+01]),
                NASA([1402.00, 5000.00],
                     [ 1.26575005E+01,  1.53301203E-02, -5.23821364E-06,
                       8.12867095E-10, -4.71504821E-14,  1.03083446E+04,
                      -4.75386061E+01])),
        transport=gas_transport(geom='nonlinear',
                                diam=5.2,
                                well_depth=408.0,
                                rot_relax=1.0),
        note='HR11/99BLYP00')

species(name='C5H5',
        atoms='C:5 H:5',
        thermo=(NASA([300.00, 1390.00],
                     [-5.06123528E+00,  6.22811415E-02, -5.54554033E-05,
                       2.48165977E-08, -4.42535667E-12,  2.79507829E+04,
                       4.34732480E+01]),
                NASA([1390.00, 5000.00],
                     [ 1.40621166E+01,  1.23675431E-02, -4.39099987E-06,
                       6.99018878E-10, -4.12720509E-14,  2.18332697E+04,
                      -5.73756923E+01])),
        transport=gas_transport(geom='nonlinear',
                                diam=5.2,
                                well_depth=408.0,
                                rot_relax=1.0),
        note='9/20/1')

species(name='C7H7',
        atoms='C:7 H:7',
        thermo=(NASA([200.00, 1000.00],
                     [ 4.81115400E-01,  3.85128320E-02,  3.28614920E-05,
                      -7.69727210E-08,  3.54230680E-11,  2.33070270E+04,
                       2.35488200E+01]),
                NASA([1000.00, 6000.00],
                     [ 1.40439800E+01,  2.34938730E-02, -8.53753670E-06,
                       1.38908410E-09, -8.36144200E-14,  1.85642030E+04,
                      -5.16655890E+01])),
        transport=gas_transport(geom='nonlinear',
                                diam=5.68,
                                well_depth=495.3,
                                dipole=0.43,
                                polar=12.3,
                                rot_relax=1.0),
        note='T08/90')

species(name='C8H8',
        atoms='C:8 H:8',
        thermo=(NASA([200.00, 1000.00],
                     [-5.49178793E+00,  8.67605909E-02, -7.23145200E-05,
                       3.11746670E-08, -5.44248162E-12,  2.89118747E+04,
                       5.96081535E+01]),
                NASA([1000.00, 1500.00],
                     [-5.49178793E+00,  8.67605909E-02, -7.23145200E-05,
                       3.11746670E-08, -5.44248162E-12,  2.89118747E+04,
                       5.96081535E+01])),
        transport=gas_transport(geom='nonlinear',
                                diam=6.18,
                                well_depth=630.4,
                                polar=16.5,
                                rot_relax=1.0),
        note='NIST')

species(name='C9H8',
        atoms='C:9 H:8',
        thermo=(NASA([300.00, 1400.00],
                     [-8.05084837E+00,  1.01128038E-01, -8.76562128E-05,
                       3.85583182E-08, -6.76128611E-12,  1.82848729E+04,
                       5.99903723E+01]),
                NASA([1400.00, 5000.00],
                     [ 2.16006864E+01,  2.31972637E-02, -7.99472821E-06,
                       1.24792069E-09, -7.26862386E-14,  8.91950484E+03,
                      -9.60744174E+01])),
        transport=gas_transport(geom='nonlinear',
                                diam=6.18,
                                well_depth=630.4,
                                polar=16.5,
                                rot_relax=1.0),
        note='HR11/99BLYP00')

species(name='C9H7',
        atoms='C:9 H:7',
        thermo=(NASA([300.00, 1402.00],
                     [-7.71981172E+00,  1.00508953E-01, -9.20043060E-05,
                       4.23480077E-08, -7.69151644E-12,  3.12834050E+04,
                       5.76557395E+01]),
                NASA([1402.00, 5000.00],
                     [ 2.14676614E+01,  2.07516997E-02, -7.14782110E-06,
                       1.11530102E-09, -6.49445901E-14,  2.23640358E+04,
                      -9.48945352E+01])),
        transport=gas_transport(geom='nonlinear',
                                diam=6.18,
                                well_depth=630.4,
                                polar=16.5,
                                rot_relax=1.0),
        note='HR11/99BLYP00')

species(name='A1C2H',
        atoms='C:8 H:6',
        thermo=(NASA([200.00, 1000.00],
                     [-8.72347200E-01,  5.18396140E-02,  6.60797380E-06,
                      -5.59509610E-08,  2.92847490E-11,  3.74616280E+04,
                       2.90963040E+01]),
                NASA([1000.00, 6000.00],
                     [ 1.56380860E+01,  2.20684320E-02, -8.02531110E-06,
                       1.30650130E-09, -7.86792790E-14,  3.22728670E+04,
                      -5.96108680E+01])),
        transport=gas_transport(geom='nonlinear',
                                diam=5.72,
                                well_depth=535.6,
                                dipole=0.77,
                                polar=12.0,
                                rot_relax=1.0),
        note='T9/96')

species(name='A1C2H3',
        atoms='C:8 H:8',
        thermo=(NASA([300.00, 1000.00],
                     [-3.86784930E+00,  6.79478650E-02, -2.52303330E-05,
                      -1.80171450E-08,  1.29984700E-11,  1.62002690E+04,
                       4.52717700E+01]),
                NASA([1000.00, 3000.00],
                     [ 1.13032130E+01,  3.37098870E-02, -1.32088850E-05,
                       2.11409620E-09, -8.73113770E-14,  1.17253880E+04,
                      -3.47379190E+01])),
        transport=gas_transport(geom='nonlinear',
                                diam=6.0,
                                well_depth=546.2,
                                dipole=0.13,
                                polar=15.0,
                                rot_relax=1.0),
        note='H6W/94')

species(name='A2',
        atoms='C:10 H:8',
        thermo=(NASA([300.00, 1401.00],
                     [-8.83645988E+00,  1.09300567E-01, -9.55200914E-05,
                       4.21647669E-08, -7.39851710E-12,  1.66533366E+04,
                       6.21064766E+01]),
                NASA([1401.00, 5000.00],
                     [ 2.34025312E+01,  2.42434427E-02, -8.36282016E-06,
                       1.30620111E-09, -7.61153748E-14,  6.51911936E+03,
                      -1.07434728E+02])),
        transport=gas_transport(geom='nonlinear',
                                diam=6.18,
                                well_depth=630.4,
                                polar=16.5,
                                rot_relax=1.0),
        note='HR11/99BLYP00')

species(name='CO',
        atoms='C:1 O:1',
        thermo=(NASA([200.00, 1000.00],
                     [ 3.57953350E+00, -6.10353690E-04,  1.01681430E-06,
                       9.07005860E-10, -9.04424490E-13, -1.43440860E+04,
                       3.50840930E+00]),
                NASA([1000.00, 6000.00],
                     [ 3.04848590E+00,  1.35172810E-03, -4.85794050E-07,
                       7.88536440E-11, -4.69807460E-15, -1.42661170E+04,
                       6.01709770E+00])),
        transport=gas_transport(geom='linear',
                                diam=3.65,
                                well_depth=98.1,
                                polar=1.95,
                                rot_relax=1.8),
        note='RUS79')

species(name='A2CH3-2',
        atoms='C:11 H:10',
        thermo=(NASA([300.00, 1394.00],
                     [-7.79722831E+00,  1.17384742E-01, -9.81964263E-05,
                       4.20963921E-08, -7.27587265E-12,  1.18609409E+04,
                       6.00521996E+01]),
                NASA([1394.00, 5000.00],
                     [ 2.69193347E+01,  2.88860474E-02, -1.00554939E-05,
                       1.57995341E-09, -9.24422986E-14,  5.52025831E+02,
                      -1.23762368E+02])),
        transport=gas_transport(geom='nonlinear',
                                diam=6.47,
                                well_depth=693.1,
                                polar=18.0,
                                rot_relax=1.0),
        note='HR6/99BLYP')

species(name='A2CH2-2',
        atoms='C:11 H:9',
        thermo=(NASA([300.00, 1393.00],
                     [-9.37163916E+00,  1.27337620E-01, -1.20319319E-04,
                       5.78670534E-08, -1.10107665E-11,  2.91224235E+04,
                       6.53001580E+01]),
                NASA([1393.00, 5000.00],
                     [ 2.67837993E+01,  2.67091735E-02, -9.35972813E-06,
                       1.47696837E-09, -8.66691339E-14,  1.80361580E+04,
                      -1.23392042E+02])),
        transport=gas_transport(geom='nonlinear',
                                diam=6.47,
                                well_depth=693.1,
                                polar=18.0,
                                rot_relax=1.0),
        note='HR6/99BLYP')

species(name='CH3COCH3',
        atoms='C:3 H:6 O:1',
        thermo=(NASA([200.00, 1000.00],
                     [ 5.55579430E+00, -2.83654280E-03,  7.05689450E-05,
                      -8.78104880E-08,  3.40282660E-11, -2.81133370E+04,
                       2.32266000E+00]),
                NASA([1000.00, 6000.00],
                     [ 7.29759910E+00,  1.75662070E-02, -6.31704560E-06,
                       1.02030860E-09, -6.10940160E-14, -2.98176800E+04,
                      -1.27569810E+01])),
        transport=gas_transport(geom='nonlinear',
                                diam=4.86,
                                well_depth=435.5,
                                rot_relax=1.0),
        note='T5/92')

species(name='CH3COCH2',
        atoms='C:3 H:5 O:1',
        thermo=(NASA([200.00, 1000.00],
                     [ 3.99443730E+00,  4.08147460E-03,  5.20346360E-05,
                      -7.00095300E-08,  2.78824790E-11, -3.39769250E+03,
                       1.05692960E+01]),
                NASA([1000.00, 6000.00],
                     [ 7.25542780E+00,  1.54585200E-02, -5.57981380E-06,
                       9.03567270E-10, -5.42039870E-14, -5.28332680E+03,
                      -1.11801770E+01])),
        transport=gas_transport(geom='nonlinear',
                                diam=4.86,
                                well_depth=435.5,
                                rot_relax=1.0),
        note='T5/92')

species(name='CH2CO',
        atoms='C:2 H:2 O:1',
        thermo=(NASA([200.00, 1000.00],
                     [ 2.14011650E+00,  1.80883680E-02, -1.73242160E-05,
                       9.27674770E-09, -1.99150110E-12, -7.04305090E+03,
                       1.21986990E+01]),
                NASA([1000.00, 6000.00],
                     [ 5.75779010E+00,  6.34965070E-03, -2.25844070E-06,
                       3.62084620E-10, -2.15690300E-14, -7.97861130E+03,
                      -6.10640370E+00])),
        transport=gas_transport(geom='nonlinear',
                                diam=3.97,
                                well_depth=436.0,
                                rot_relax=2.0),
        note='T6/94')

species(name='CH3CO',
        atoms='C:2 H:3 O:1',
        thermo=(NASA([200.00, 1000.00],
                     [ 4.03587050E+00,  8.77294870E-04,  3.07100100E-05,
                      -3.92475650E-08,  1.52968690E-11, -2.68207380E+03,