"""
 MECHANISM OF ACETYLENE PYROLYSIS
 ssssssssssssssssssssssssssssssssssssssssssssssssssssssssssssssssssssssssssssss

 Koyo Norinaga and Olaf Deutschmann

 ssssssssssssssssssssssssssssssssssssssssssssssssssssssssssssssssssssssssssssss

"""

units(length='cm', time='s', quantity='mol', act_energy='J/mol')

ideal_gas(name='gas',
          elements="Ar N C H O",
          species="""LC6H12    SCH2      TCH2      Am1pent   A1C2H
                     A1C2Hl2   A1C2Hs    A1C2H-    A1C2H3s   A1C2H5
                     A2        A2-1      A2-2      A2C2Hl2   A2C2H-1
                     A2C2H-1s  A2C2H-2   A2C2H-2s  A2C2H-23  A2C2H2-1
                     A2C2H2-2  A2C2H3-2  A2C2H5    A2C6H4-1  A2C6H4-2
                     A2C6H5-2  A2CH2-1   A2CH2-2   A2CH3-1   A2CH3-2
                     A2R5      A2R5-1    A2R5-3    A2R5-4    A2R5-5
                     A2R5E-1   A2R5E-3   A2R5E-4   A2R5E-5   A2R5E12
                     A2R5E34   A2R5E43   A2R5E45   A2R5E54   A2R5H2
                     A2T1      A2T2      A3        A3-1      A3-2
                     A3-4      A3-9      A3C2H-1   A3C2H-1s  A3C2H-2
                     A3C2H-2s  A3C2H-4   A3C2H2-4  A3CH2     A3CH2R
                     A3CH3     A3L       A3L-1     A3L-2     A3L-9
                     A3LE-1    A3LE-1P   A3LE-2    A3LE-2P   A3LE-2S
                     A3LR5     A3LR5s    A3R5      A3R5-10s  A3R5-7s
                     A4        A4-1      A4-2      A4-4      A4C2H-1
                     A4C2H-1s  A4C2H-2   A4C2H-2s  A4C2H-4   A4C2H-4s
                     A4L       A4Ls      AC3H4     AC3H5     ACH3CH2
                     ACH3CH3   ANTHAN    BAA3L     BAA3L-1   BAA3L-12
                     BAA3L-4   BAPYR     BAPYRs    BBFLTHN   BBFLTHNs
                     BENZNAP   BENZNAPs  BENZYLB   BENZYLBs  BEPYR
                     BEPYRs    BGHIF     BGHIF-    BGHIPE    BGHIPEs
                     BIPHEN    BIPHENH   BKFLTHN   C         C-C6H12
                     C-C6H4    C-C6H7    C10H10    C10H9     C17H12
                     C2        C2H       C2H2      C2H3      C2H4
                     C2H5      C2H6      C3H2      C3H3      C3H6
                     C3H8      C4H       C4H2      C4H4      C4H512
                     C4H52     C4H6      C4H61     C4H612    C4H62
                     C4H8      C5H4      C5H4CH3   C5H4H     C5H5
                     C5H5CH3   C5H6      C5H7      C5H8      C6H
                     C6H2      C6H3      C6H4CH3   C6H5      C6H6
                     C6H813    C6H814    C7H7      C7H8      C8H12
                     C8H2      C8H8      C9H7      C9H8      CH
                     CH2CO     CH3       CH3CO     CH3COCH2  CH3COCH3
                     CH4       CORONEN   CPBFL     CPBFLs    CPCDA4
                     CPCDA4s   CPCDFL    CPCDFLs   CRYSN     CRYSN-1
                     CRYSN-4   CRYSN-5   CYC3H4    DCPA4     FLTHN
                     FLTHN-1   FLTHN-3   FLTHN-7   H         H2
                     HA2R5     I-A1C2H2  I-C3H7    I-C4H3    I-C4H5
                     I-C4H51   I-C4H7    I-C6H5    I-C6H7    INA4
                     L-C5H4    L-C5H5    L-C5H7    L-C5H8    L-C6H4
                     L-C6H6    L-C6H8    N-A1C2H2  N-C3H7    N-C4H3
                     N-C4H5    N-C4H51   N-C4H7    N-C6H5    N-C6H7
                     CO        P2        P2-       PC3H4     PERYLN
                     PERYLNs   SC3H5     TC3H5     fluorene  indenCH3
                     indylCH3  A1C2H3    P3        A4T       BBNZYL
                     A3H2      DPETE     BEPYR-2   BAPYR-2   P3-
                     A4T-      BBNZYL-   HA3       DPETEs    BFinden
                     BFinden-  AR        N2""",
          reactions='all',
          initial_state=state(temperature=300.0, pressure=OneAtm))

#-------------------------------------------------------------------------------
# Species data
#-------------------------------------------------------------------------------

species(name='LC6H12',
        atoms='C:6 H:12',
        thermo=(NASA([300.00, 1000.00],
                     [ 1.96862030E+00,  4.76562310E-02,  6.60153730E-06,
                      -3.71481730E-08,  1.69224630E-11, -7.71187890E+03,
                       2.08592300E+01]),
                NASA([1000.00, 4000.00],
                     [ 1.86636350E+01,  2.09714510E-02, -3.10828090E-06,
                      -6.86516180E-10,  1.60236080E-13, -1.35908950E+04,
                      -7.09158600E+01])),
        note='T5/83')

species(name='SCH2',
        atoms='C:1 H:2',
        thermo=(NASA([300.00, 1000.00],
                     [ 3.97126500E+00, -1.69908800E-04,  1.02536890E-06,
                       2.49255000E-09, -1.98126600E-12,  4.98936700E+04,
                       5.75320700E-02]),
                NASA([1000.00, 4000.00],
                     [ 3.55288800E+00,  2.06678800E-03, -1.91411600E-07,
                      -1.10467330E-10,  2.02134900E-14,  4.98497500E+04,
                       1.68657000E+00])),
        note='CH2(S)31287')

species(name='TCH2',
        atoms='C:1 H:2',
        thermo=(NASA([250.00, 1000.00],
                     [ 3.76223700E+00,  1.15981910E-03,  2.48958500E-07,
                       8.80083600E-10, -7.33243500E-13,  4.53679000E+04,
                       1.71257700E+00]),
                NASA([1000.00, 4000.00],
                     [ 3.63640700E+00,  1.93305600E-03, -1.68701600E-07,
                      -1.00989940E-10,  1.80825500E-14,  4.53413400E+04,
                       2.15656000E+00])),
        note='CH2120186')

species(name='Am1pent',
        atoms='C:6 H:12',
        thermo=(NASA([298.15, 1000.00],
                     [ 1.32692970E+00,  6.33906450E-02, -3.99087620E-05,
                       1.29040410E-08, -1.58236170E-12, -1.02775540E+04,
                       1.94958380E+01]),
                NASA([1000.00, 5000.00],
                     [ 1.25310290E+01,  3.46184440E-02, -1.32212620E-05,
                       2.36255010E-09, -1.60270530E-13, -1.36404330E+04,
                      -3.93125830E+01])),
        note='T11/95')

species(name='A1C2H',
        atoms='C:8 H:6',
        thermo=(NASA([200.00, 1000.00],
                     [-8.72347200E-01,  5.18396140E-02,  6.60797380E-06,
                      -5.59509610E-08,  2.92847490E-11,  3.74616280E+04,
                       2.90963040E+01]),
                NASA([1000.00, 6000.00],
                     [ 1.56380860E+01,  2.20684320E-02, -8.02531110E-06,
                       1.30650130E-09, -7.86792790E-14,  3.22728670E+04,
                      -5.96108680E+01])),
        note='T9/96')

species(name='A1C2Hl2',
        atoms='C:10 H:6',
        thermo=(NASA([300.00, 1000.00],
                     [-7.55703640E+00,  1.21595920E-01, -1.51388490E-04,
                       1.02874880E-07, -2.89509110E-11,  6.29141680E+04,
                       5.52132870E+01]),
                NASA([1000.00, 3000.00],
                     [ 3.97667850E+01, -2.49397980E-02,  3.42101850E-05,
                      -1.44732580E-08,  2.01040230E-12,  5.01367500E+04,
                      -1.86576320E+02])),
        note='H6W/94')

species(name='A1C2Hs',
        atoms='C:8 H:5',
        thermo=(NASA([300.00, 1000.00],
                     [-2.93242170E+00,  6.60436750E-02, -3.95004750E-05,
                      -3.18303810E-09,  8.53003870E-12,  6.53240430E+04,
                       3.80586850E+01]),
                NASA([1000.00, 3000.00],
                     [ 2.86861570E+01, -1.38698630E-02,  2.27211860E-05,
                      -9.98822710E-09,  1.40858510E-12,  5.60473090E+04,
                      -1.27503340E+02])),
        note='H6W/94')

species(name='A1C2H-',
        atoms='C:8 H:5',
        thermo=(NASA([300.00, 1000.00],
                     [-4.44958590E+00,  7.69950670E-02, -6.66170380E-05,
                       2.50386820E-08, -1.97566010E-12,  6.52259260E+04,
                       4.44279480E+01]),
                NASA([1000.00, 3000.00],
                     [ 1.23595010E+01,  2.54533570E-02, -1.06065540E-05,
                       1.89146030E-09, -1.06306220E-13,  6.09304610E+04,
                      -4.09002080E+01])),
        note='H6W/94')

species(name='A1C2H3s',
        atoms='C:8 H:7',
        thermo=(NASA([300.00, 1000.00],
                     [-3.88686850E+00,  6.81689610E-02, -3.48058750E-05,
                      -5.64102540E-09,  8.07147580E-12,  4.49413590E+04,
                       4.59431880E+01]),
                NASA([1000.00, 3000.00],
                     [ 1.15635990E+01,  3.02108100E-02, -1.15455930E-05,
                       1.73023200E-09, -5.23797650E-14,  4.04984920E+04,
                      -3.48829650E+01])),
        note='H6W/94')

species(name='A1C2H5',
        atoms='C:8 H:10',
        thermo=(NASA([200.00, 1000.00],
                     [ 2.45066920E+00,  2.62391430E-02,  9.99913480E-05,
                      -1.55731830E-07,  6.56435720E-11,  1.01894860E+03,
                       1.64451760E+01]),
                NASA([1000.00, 6000.00],
                     [ 1.59873190E+01,  3.26763850E-02, -1.18902990E-05,
                       1.93609040E-09, -1.16596560E-13, -4.70738700E+03,
                      -6.36750390E+01])),
        note='T9/96')

species(name='A2',
        atoms='C:10 H:8',
        thermo=(NASA([300.00, 1401.00],
                     [-8.83645988E+00,  1.09300567E-01, -9.55200914E-05,
                       4.21647669E-08, -7.39851710E-12,  1.66533366E+04,
                       6.21064766E+01]),
                NASA([1401.00, 5000.00],
                     [ 2.34025312E+01,  2.42434427E-02, -8.36282016E-06,
                       1.30620111E-09, -7.61153748E-14,  6.51911936E+03,
                      -1.07434728E+02])),
        note='HR11/99BLYP00')

species(name='A2-1',
        atoms='C:10 H:7',
        thermo=(NASA([300.00, 1000.00],
                     [-8.52872940E+00,  1.03345990E-01, -9.19227020E-05,
                       4.31474480E-08, -8.57381350E-12,  4.63350040E+04,
                       6.33422240E+01]),
                NASA([1000.00, 3000.00],
                     [ 3.83809050E+01, -2.31574510E-02,  3.54792720E-05,
                      -1.53954570E-08,  2.16090690E-12,  3.26984690E+04,
                      -1.81065120E+02])),
        note='H6W/94')

species(name='A2-2',
        atoms='C:10 H:7',
        thermo=(NASA([300.00, 1000.00],
                     [-3.84485240E+00,  7.05146790E-02, -9.37480400E-06,
                      -4.40516070E-08,  2.42678650E-11,  4.56276560E+04,
                       4.35820010E+01]),
                NASA([1000.00, 3000.00],
                     [ 3.73264010E+01, -2.04780700E-02,  3.31830670E-05,
                      -1.45769870E-08,  2.05691370E-12,  3.28403010E+04,
                      -1.75377040E+02])),
        note='H6W/94')

species(name='A2C2Hl2',
        atoms='C:14 H:8',
        thermo=(NASA([300.00, 1000.00],
                     [-6.30290080E+00,  1.37456950E-01, -1.30554810E-04,
                       6.07306630E-08, -1.01783450E-11,  8.54894300E+04,
                       5.18915480E+01]),
                NASA([1000.00, 3000.00],
                     [ 2.36710620E+01,  4.21370490E-02, -1.75966450E-05,
                       3.10812510E-09, -1.68052160E-13,  7.79262730E+04,
                      -9.96154480E+01])),
        note='H6W/94')

species(name='A2C2H-1',
        atoms='C:12 H:8',
        thermo=(NASA([300.00, 1000.00],
                     [-1.15304500E+01,  1.47414330E-01, -1.73023440E-04,
                       1.15003900E-07, -3.27091830E-11,  4.37931290E+04,
                       7.43917540E+01]),
                NASA([1000.00, 3000.00],
                     [ 4.94536740E+01, -3.38571110E-02,  4.65056070E-05,
                      -1.96811950E-08,  2.73407690E-12,  2.68510510E+04,
                      -2.39330990E+02])),
        note='H6W/94')

species(name='A2C2H-1s',
        atoms='C:12 H:7',
        thermo=(NASA([300.00, 1000.00],
                     [-8.41759680E+00,  1.23916800E-01, -1.22506720E-04,
                       6.40713440E-08, -1.38895830E-11,  7.32485620E+04,
                       6.18932040E+01]),
                NASA([1000.00, 3000.00],
                     [ 3.66143490E+01, -6.03146850E-03,  2.16149640E-05,
                      -1.05799100E-08,  1.55631240E-12,  6.07238980E+04,
                      -1.70266910E+02])),
        note='H6W/94')

species(name='A2C2H-2',
        atoms='C:12 H:8',
        thermo=(NASA([300.00, 1000.00],
                     [-6.82332560E+00,  1.13820830E-01, -8.85849000E-05,
                       2.59308560E-08,  8.07128240E-13,  4.27977190E+04,
                       5.45920980E+01]),
                NASA([1000.00, 3000.00],
                     [ 1.81847740E+01,  4.13439650E-02, -1.73028220E-05,
                       3.10047700E-09, -1.75808170E-13,  3.61715430E+04,
                      -7.34660030E+01])),
        note='H6W/94')

species(name='A2C2H-2s',
        atoms='C:12 H:7',
        thermo=(NASA([300.00, 1000.00],
                     [-1.18247370E+01,  1.49041830E-01, -1.86184680E-04,
                       1.31294600E-07, -3.91453260E-11,  7.33853750E+04,
                       7.62738340E+01]),
                NASA([1000.00, 3000.00],
                     [ 4.49335170E+01, -2.60268710E-02,  3.85890740E-05,
                      -1.66463570E-08,  2.33213100E-12,  5.79266370E+04,
                      -2.14172790E+02])),
        note='H6W/94')

species(name='A2C2H-23',
        atoms='C:12 H:7',
        thermo=(NASA([300.00, 1402.00],
                     [-4.87080451E+00,  1.11181544E-01, -9.99250169E-05,
                       4.50353805E-08, -8.02108631E-12,  7.32308258E+04,
                       4.65076148E+01]),
                NASA([1402.00, 5000.00],
                     [ 2.79965428E+01,  2.29275935E-02, -7.91737736E-06,
                       1.23755570E-09, -7.21543136E-14,  6.30622660E+04,
                      -1.25776629E+02])),
        note='HR6/99BLYP')

species(name='A2C2H2-1',
        atoms='C:12 H:9',
        thermo=(NASA([300.00, 1000.00],
                     [-7.85163310E+00,  1.21048630E-01, -1.05316620E-04,
                       4.62804830E-08, -7.79638850E-12,  5.43162340E+04,
                       6.36543880E+01]),
                NASA([1000.00, 3000.00],
                     [ 3.84492950E+01, -6.27949460E-03,  2.44048280E-05,
                      -1.19688220E-08,  1.75868780E-12,  4.10901760E+04,
                      -1.76686230E+02])),
        note='H6W/94')

species(name='A2C2H2-2',
        atoms='C:12 H:9',
        thermo=(NASA([300.00, 1392.00],
                     [-8.70957405E+00,  1.31261022E-01, -1.22693726E-04,
                       5.83208333E-08, -1.09881844E-11,  5.33299060E+04,
                       6.38105272E+01]),
                NASA([1392.00, 5000.00],
                     [ 2.90164914E+01,  2.74334513E-02, -9.62681915E-06,
                       1.52055203E-09, -8.92864954E-14,  4.16734692E+04,
                      -1.33446655E+02])),
        note='HR7/99BLYP')

species(name='A2C2H3-2',
        atoms='C:12 H:10',
        thermo=(NASA([300.00, 1394.00],
                     [-9.23060535E+00,  1.32105236E-01, -1.18392555E-04,
                       5.43764194E-08, -9.98391849E-12,  2.31158865E+04,
                       6.63618940E+01]),
                NASA([1394.00, 5000.00],
                     [ 2.89504042E+01,  2.99590007E-02, -1.04804388E-05,
                       1.65195416E-09, -9.68627571E-14,  1.10637210E+04,
                      -1.34249411E+02])),
        note='HR8/99BLYP')

species(name='A2C2H5',
        atoms='C:12 H:12',
        thermo=(NASA([200.00, 1000.00],
                     [ 1.98405802E-02,  6.20844325E-02,  7.79624479E-05,
                      -1.55438421E-07,  6.85371120E-11,  8.47514808E+03,
                       2.80182938E+01]),
                NASA([1000.00, 6000.00],
                     [ 2.53697727E+01,  4.04594180E-02, -1.49784208E-05,
                       2.46402471E-09, -1.49382751E-13, -8.20299732E+02,
                      -1.14459910E+02])),
        note='T7/98')

species(name='A2C6H4-1',
        atoms='C:16 H:10',
        thermo=(NASA([300.00, 1401.00],
                     [-1.19636639E+01,  1.62807374E-01, -1.44396441E-04,
                       6.40547710E-08, -1.12414299E-11,  5.13118179E+04,
                       7.82858000E+01]),
                NASA([1401.00, 5000.00],
                     [ 3.69495994E+01,  3.33279536E-02, -1.15489217E-05,
                       1.80952867E-09, -1.05682526E-13,  3.60140698E+04,
                      -1.78733511E+02])),
        note='HR04/00BLYP')

species(name='A2C6H4-2',
        atoms='C:16 H:10',
        thermo=(NASA([300.00, 1401.00],
                     [-1.24914820E+01,  1.64174058E-01, -1.45751722E-04,
                       6.46493273E-08, -1.13381721E-11,  5.25712744E+04,
                       7.96804517E+01]),
                NASA([1401.00, 5000.00],
                     [ 3.69160760E+01,  3.33543122E-02, -1.15579680E-05,
                       1.81096938E-09, -1.05768626E-13,  3.71293370E+04,
                      -1.79912823E+02])),
        note='HR12/99BLYP')

species(name='A2C6H5-2',
        atoms='C:16 H:12',
        thermo=(NASA([300.00, 1397.00],
                     [-1.33768307E+01,  1.73717213E-01, -1.54115598E-04,
                       6.92566084E-08, -1.23987608E-11,  2.73858799E+04,
                       8.53292167E+01]),
                NASA([1397.00, 5000.00],
                     [ 3.80282037E+01,  3.76519528E-02, -1.31640724E-05,
                       2.07433637E-09, -1.21609502E-13,  1.11550764E+04,
                      -1.85043277E+02])),
        note='HR8/99BLYP')

species(name='A2CH2-1',
        atoms='C:11 H:9',
        thermo=(NASA([300.00, 1393.00],
                     [-9.42561321E+00,  1.26956297E-01, -1.19253218E-04,
                       5.69889164E-08, -1.07817848E-11,  2.90341851E+04,
                       6.56750520E+01]),
                NASA([1393.00, 5000.00],
                     [ 2.67591143E+01,  2.66944366E-02, -9.34672512E-06,
                       1.47411301E-09, -8.64694573E-14,  1.79163708E+04,
                      -1.23291372E+02])),
        note='HR6/99BLYP')

species(name='A2CH2-2',
        atoms='C:11 H:9',
        thermo=(NASA([300.00, 1393.00],
                     [-9.37163916E+00,  1.27337620E-01, -1.20319319E-04,
                       5.78670534E-08, -1.10107665E-11,  2.91224235E+04,
                       6.53001580E+01]),
                NASA([1393.00, 5000.00],
                     [ 2.67837993E+01,  2.67091735E-02, -9.35972813E-06,
                       1.47696837E-09, -8.66691339E-14,  1.80361580E+04,
                      -1.23392042E+02])),
        note='HR6/99BLYP')

species(name='A2CH3-1',
        atoms='C:11 H:10',
        thermo=(NASA([300.00, 1394.00],
                     [-7.98962224E+00,  1.17448428E-01, -9.76360478E-05,
                       4.14932114E-08, -7.10609396E-12,  1.20022223E+04,
                       5.99922187E+01]),
                NASA([1394.00, 5000.00],
                     [ 2.69620791E+01,  2.88172394E-02, -1.00254209E-05,
                       1.57466721E-09, -9.21126923E-14,  5.87059336E+02,
                      -1.25204688E+02])),
        note='HR6/99BLYP')

species(name='A2CH3-2',
        atoms='C:11 H:10',
        thermo=(NASA([300.00, 1394.00],
                     [-7.79722831E+00,  1.17384742E-01, -9.81964263E-05,
                       4.20963921E-08, -7.27587265E-12,  1.18609409E+04,
                       6.00521996E+01]),
                NASA([1394.00, 5000.00],
                     [ 2.69193347E+01,  2.88860474E-02, -1.00554939E-05,
                       1.57995341E-09, -9.24422986E-14,  5.52025831E+02,
                      -1.23762368E+02])),
        note='HR6/99BLYP')

species(name='A2R5',
        atoms='C:12 H:8',
        thermo=(NASA([300.00, 1000.00],
                     [-9.70116140E+00,  1.20194490E-01, -9.89076940E-05,
                       3.72408840E-08, -4.11245780E-12,  2.96019260E+04,
                       6.69705960E+01]),
                NASA([1000.00, 3000.00],
                     [ 4.58836980E+01, -2.72269030E-02,  4.15693360E-05,
                      -1.80470930E-08,  2.53513960E-12,  1.33945740E+04,
                      -2.23045840E+02])),
        note='H6W/94')

species(name='A2R5-1',
        atoms='C:12 H:7',
        thermo=(NASA([300.00, 1402.00],
                     [-9.08815670E+00,  1.20984551E-01, -1.09212390E-04,
                       4.91391820E-08, -8.72000920E-12,  6.19816965E+04,
                       6.44119214E+01]),
                NASA([1402.00, 5000.00],
                     [ 2.72278172E+01,  2.37367077E-02, -8.23307891E-06,
                       1.29080949E-09, -7.54211310E-14,  5.07348517E+04,
                      -1.26018952E+02])),
        note='TB1/99BLYP')

species(name='A2R5-3',
        atoms='C:12 H:7',
        thermo=(NASA([300.00, 1402.00],
                     [-1.00212736E+01,  1.23858020E-01, -1.08541906E-04,
                       4.63139645E-08, -7.72705443E-12,  5.99924259E+04,
                       6.86456422E+01]),
                NASA([1402.00, 5000.00],
                     [ 2.95753866E+01,  2.14830939E-02, -7.41615728E-06,
                       1.16054865E-09, -6.77674004E-14,  4.75148199E+04,
                      -1.40035567E+02])),
        note='TB1/99BLYP')

species(name='A2R5-4',
        atoms='C:12 H:7',
        thermo=(NASA([300.00, 1402.00],
                     [-9.11350427E+00,  1.21783503E-01, -1.10617562E-04,
                       5.00287584E-08, -8.91366253E-12,  5.99556335E+04,
                       6.43973708E+01]),
                NASA([1402.00, 5000.00],
                     [ 2.73864003E+01,  2.35907344E-02, -8.18015231E-06,
                       1.28227389E-09, -7.49128449E-14,  4.86973348E+04,
                      -1.26836980E+02])),
        note='TB1/99BLYP')

species(name='A2R5-5',
        atoms='C:12 H:7',
        thermo=(NASA([300.00, 1402.00],
                     [-9.18225753E+00,  1.21652543E-01, -1.10229668E-04,
                       4.97449695E-08, -8.84730241E-12,  6.02194179E+04,
                       6.48400542E+01]),
                NASA([1402.00, 5000.00],
                     [ 2.73127115E+01,  2.36607767E-02, -8.20602003E-06,
                       1.28649401E-09, -7.51660931E-14,  4.89445491E+04,
                      -1.26433916E+02])),
        note='TB1/99BLYP')

species(name='A2R5E-1',
        atoms='C:14 H:8',
        thermo=(NASA([300.00, 1402.00],
                     [-7.94248081E+00,  1.35252778E-01, -1.22773168E-04,
                       5.57488358E-08, -9.98622256E-12,  5.35583225E+04,
                       5.94025060E+01]),
                NASA([1402.00, 5000.00],
                     [ 3.21119732E+01,  2.71033090E-02, -9.36641900E-06,
                       1.46485221E-09, -8.54407854E-14,  4.12237735E+04,
                      -1.50347391E+02])),
        note='HR7/99BLYP')

species(name='A2R5E-3',
        atoms='C:14 H:8',
        thermo=(NASA([300.00, 1402.00],
                     [-7.68051241E+00,  1.35299173E-01, -1.23464227E-04,
                       5.63670416E-08, -1.01469540E-11,  5.45113980E+04,
                       5.86879351E+01]),
                NASA([1402.00, 5000.00],
                     [ 3.22753161E+01,  2.69761865E-02, -9.32481150E-06,
                       1.45856542E-09, -8.50823247E-14,  4.22413139E+04,
                      -1.50406092E+02])),
        note='HR7/99BLYP')

species(name='A2R5E-4',
        atoms='C:14 H:8',
        thermo=(NASA([300.00, 1401.00],
                     [-7.99432137E+00,  1.36928258E-01, -1.26084103E-04,
                       5.80711675E-08, -1.05356870E-11,  5.49966516E+04,
                       5.98652621E+01]),
                NASA([1401.00, 5000.00],
                     [ 3.23047034E+01,  2.69617198E-02, -9.32221063E-06,
                       1.45841344E-09, -8.50839096E-14,  4.26767312E+04,
                      -1.50798504E+02])),
        note='HR7/99BLYP')

species(name='A2R5E-5',
        atoms='C:14 H:8',
        thermo=(NASA([300.00, 1402.00],
                     [-7.89238679E+00,  1.35676852E-01, -1.23792033E-04,
                       5.65006962E-08, -1.01667537E-11,  5.45561956E+04,
                       5.90637239E+01]),
                NASA([1402.00, 5000.00],
                     [ 3.21612525E+01,  2.70662867E-02, -9.35425400E-06,
                       1.46297989E-09, -8.53316967E-14,  4.22611911E+04,
                      -1.50529220E+02])),
        note='HR7/99BLYP')

species(name='A2R5E12',
        atoms='C:14 H:7',
        thermo=(NASA([300.00, 1400.00],
                     [-7.22261674E+00,  1.31395484E-01, -1.21449249E-04,
                       5.58755730E-08, -1.01085404E-11,  8.66450722E+04,
                       5.64412655E+01]),
                NASA([1400.00, 5000.00],
                     [ 3.18826308E+01,  2.48270613E-02, -8.59898020E-06,
                       1.34696470E-09, -7.86553246E-14,  7.46950504E+04,
                      -1.48000717E+02])),
        note='HR7/99BLYP')

species(name='A2R5E34',
        atoms='C:14 H:7',
        thermo=(NASA([300.00, 1403.00],
                     [-6.40177627E+00,  1.29670640E-01, -1.19833893E-04,
                       5.51057999E-08, -9.95836756E-12,  8.55974978E+04,
                       5.27271055E+01]),
                NASA([1403.00, 5000.00],
                     [ 3.20556827E+01,  2.46638522E-02, -8.53744993E-06,
                       1.33668652E-09, -7.80255741E-14,  7.38766433E+04,
                      -1.48236755E+02])),
        note='HR11/99BLYP')

species(name='A2R5E43',
        atoms='C:14 H:7',
        thermo=(NASA([300.00, 1402.00],
                     [-6.80724534E+00,  1.30160012E-01, -1.19646053E-04,
                       5.46843524E-08, -9.82662943E-12,  8.60464782E+04,
                       5.45642178E+01]),
                NASA([1402.00, 5000.00],
                     [ 3.20292021E+01,  2.46955395E-02, -8.55137550E-06,
                       1.33924806E-09, -7.81927998E-14,  7.41627859E+04,
                      -1.48567777E+02])),
        note='HR11/99BLYP')

species(name='A2R5E45',
        atoms='C:14 H:7',
        thermo=(NASA([300.00, 1403.00],
                     [-6.55646892E+00,  1.29404033E-01, -1.18784303E-04,
                       5.42365974E-08, -9.73841861E-12,  8.63194759E+04,
                       5.37863099E+01]),
                NASA([1403.00, 5000.00],
                     [ 3.20221044E+01,  2.46903037E-02, -8.54681341E-06,
                       1.33822804E-09, -7.81202921E-14,  7.45108809E+04,
                      -1.48012549E+02])),
        note='HR11/99BLYP')

species(name='A2R5E54',
        atoms='C:14 H:7',
        thermo=(NASA([300.00, 1404.00],
                     [-6.58001201E+00,  1.29178493E-01, -1.18016707E-04,
                       5.35722667E-08, -9.56225179E-12,  8.56189900E+04,
                       5.36752525E+01]),
                NASA([1404.00, 5000.00],
                     [ 3.20640677E+01,  2.46700966E-02, -8.54302844E-06,
                       1.33795145E-09, -7.81163664E-14,  7.37678190E+04,
                      -1.48575286E+02])),
        note='HR7/99BLYP')

species(name='A2R5H2',
        atoms='C:12 H:10',
        thermo=(NASA([300.00, 1399.00],
                     [-1.10564015E+01,  1.32861959E-01, -1.14364242E-04,
                       4.99457145E-08, -8.70951174E-12,  1.71293238E+04,
                       7.30488980E+01]),
                NASA([1399.00, 5000.00],
                     [ 2.82230130E+01,  3.04885332E-02, -1.05517790E-05,
                       1.65167191E-09, -9.63899602E-14,  4.62721125E+03,
                      -1.34012627E+02])),
        note='HR4/99BLYP')

species(name='A2T1',
        atoms='C:10 H:6',
        thermo=(NASA([300.00, 1401.00],
                     [-5.91383758E+00,  9.53032669E-02, -8.40320825E-05,
                       3.71175012E-08, -6.49277297E-12,  5.75780222E+04,
                       5.05400652E+01]),
                NASA([1401.00, 5000.00],
                     [ 2.26743828E+01,  1.98529546E-02, -6.86764509E-06,
                       1.07482892E-09, -6.27247999E-14,  4.86149947E+04,
                      -9.97586064E+01])),
        note='HR12/99BLYP')

species(name='A2T2',
        atoms='C:10 H:6',
        thermo=(NASA([300.00, 1401.00],
                     [-5.71085200E+00,  9.46608203E-02, -8.30702095E-05,
                       3.64968043E-08, -6.35095707E-12,  5.88368563E+04,
                       4.88989311E+01]),
                NASA([1401.00, 5000.00],
                     [ 2.27563525E+01,  1.97983673E-02, -6.85196907E-06,
                       1.07269721E-09, -6.26130244E-14,  4.98909571E+04,
                      -1.00848492E+02])),
        note='HR12/99BLYP00')

species(name='A3',
        atoms='C:14 H:10',
        thermo=(NASA([200.00, 1000.00],
                     [-3.36467170E+00,  8.50732710E-02,  3.75311100E-05,
                      -1.26644990E-07,  6.14457050E-11,  2.20198780E+04,
                       4.05962180E+01]),
                NASA([1000.00, 6000.00],
                     [ 2.66024740E+01,  3.97697440E-02, -1.45720260E-05,
                       2.38432960E-09, -1.44095480E-13,  1.21328380E+04,
                      -1.22666720E+02])),
        note='T1/94')

species(name='A3-1',
        atoms='C:14 H:9',
        thermo=(NASA([300.00, 1401.00],
                     [-1.09040715E+01,  1.44543895E-01, -1.28948698E-04,
                       5.76183034E-08, -1.01854264E-11,  5.28076539E+04,
                       7.28898322E+01]),
                NASA([1401.00, 5000.00],
                     [ 3.22842997E+01,  2.96288141E-02, -1.02664407E-05,
                       1.60846116E-09, -9.39327423E-14,  3.93429658E+04,
                      -1.53865589E+02])),